tests/data/state_estimation/transmission-case/input.json
{
  "version": "1.0",
  "type": "input",
  "is_batch": false,
  "attributes": {},
  "data": {
    "node": [
      {
        "id": 1,
        "u_rated": 20000.0
      },
      {
        "id": 2,
        "u_rated": 20000.0
      },
      {
        "id": 3,
        "u_rated": 230000.0
      },
      {
        "id": 4,
        "u_rated": 230000.0
      },
      {
        "id": 5,
        "u_rated": 230000.0
      },
      {
        "id": 6,
        "u_rated": 230000.0
      },
      {
        "id": 7,
        "u_rated": 230000.0
      },
      {
        "id": 8,
        "u_rated": 230000.0
      },
      {
        "id": 9,
        "u_rated": 230000.0
      },
      {
        "id": 10,
        "u_rated": 20000.0
      },
      {
        "id": 11,
        "u_rated": 20000.0
      }
    ],
    "line": [
      {
        "id": 12,
        "from_node": 3,
        "to_node": 4,
        "from_status": 1,
        "to_status": 1,
        "r1": 2.645,
        "x1": 26.45,
        "c1": 1.10248e-07,
        "tan1": 0.0,
        "r0": 7.9350000000000005,
        "x0": 79.35,
        "c0": 3.30744e-07,
        "tan0": 0.0,
        "i_n": 10000.0
      },
      {
        "id": 13,
        "from_node": 4,
        "to_node": 5,
        "from_status": 1,
        "to_status": 1,
        "r1": 1.587,
        "x1": 15.87,
        "c1": 2.93978e-08,
        "tan1": 0.0,
        "r0": 4.761,
        "x0": 47.61,
        "c0": 8.81934e-08,
        "tan0": 0.0,
        "i_n": 10000.0
      },
      {
        "id": 14,
        "from_node": 5,
        "to_node": 6,
        "from_status": 1,
        "to_status": 1,
        "r1": 5.814,
        "x1": 58.19,
        "c1": 9.652511e-07,
        "tan1": 0.0,
        "r0": 17.442,
        "x0": 174.57,
        "c0": 2.8957533e-06,
        "tan0": 0.0,
        "i_n": 10000.0
      },
      {
        "id": 15,
        "from_node": 5,
        "to_node": 6,
        "from_status": 1,
        "to_status": 1,
        "r1": 5.814,
        "x1": 58.19,
        "c1": 9.652511e-07,
        "tan1": 0.0,
        "r0": 17.442,
        "x0": 174.57,
        "c0": 2.8957533e-06,
        "tan0": 0.0,
        "i_n": 10000.0
      },
      {
        "id": 16,
        "from_node": 6,
        "to_node": 7,
        "from_status": 1,
        "to_status": 1,
        "r1": 5.814,
        "x1": 58.19,
        "c1": 9.652511e-07,
        "tan1": 0.0,
        "r0": 17.442,
        "x0": 174.57,
        "c0": 2.8957533e-06,
        "tan0": 0.0,
        "i_n": 10000.0
      },
      {
        "id": 17,
        "from_node": 6,
        "to_node": 7,
        "from_status": 1,
        "to_status": 1,
        "r1": 5.814,
        "x1": 58.19,
        "c1": 9.652511e-07,
        "tan1": 0.0,
        "r0": 17.442,
        "x0": 174.57,
        "c0": 2.8957533e-06,
        "tan0": 0.0,
        "i_n": 10000.0
      },
      {
        "id": 18,
        "from_node": 7,
        "to_node": 8,
        "from_status": 1,
        "to_status": 1,
        "r1": 1.587,
        "x1": 15.87,
        "c1": 2.93978e-08,
        "tan1": 0.0,
        "r0": 4.761,
        "x0": 47.61,
        "c0": 8.81934e-08,
        "tan0": 0.0,
        "i_n": 10000.0
      },
      {
        "id": 19,
        "from_node": 8,
        "to_node": 9,
        "from_status": 1,
        "to_status": 1,
        "r1": 1.3225,
        "x1": 13.225,
        "c1": 5.5124e-08,
        "tan1": 0.0,
        "r0": 3.9675000000000002,
        "x0": 39.675,
        "c0": 1.65372e-07,
        "tan0": 0.0,
        "i_n": 10000.0
      }
    ],
    "sym_gen": [
      {
        "id": 21,
        "node": 1,
        "status": 1,
        "type": 0,
        "p_specified": 70000000.0,
        "q_specified": 18000000.0
      },
      {
        "id": 22,
        "node": 2,
        "status": 1,
        "type": 0,
        "p_specified": 70000000.0,
        "q_specified": 25000000.0
      },
      {
        "id": 23,
        "node": 10,
        "status": 1,
        "type": 0,
        "p_specified": 70000000.0,
        "q_specified": 20000000.0
      }
    ],
    "shunt": [
      {
        "id": 28,
        "node": 5,
        "status": 1,
        "g1": 3.780719e-06,
        "b1": 3.780719e-05,
        "g0": 0.0003780719,
        "b0": 8e-05
      },
      {
        "id": 29,
        "node": 7,
        "status": 1,
        "g1": 6.616257e-06,
        "b1": 6.616257e-05,
        "g0": 0.0006616257,
        "b0": 8e-05
      }
    ],
    "transformer": [
      {
        "id": 30,
        "from_node": 3,
        "to_node": 1,
        "from_status": 1,
        "to_status": 1,
        "u1": 230000.0,
        "u2": 20000.0,
        "sn": 900000000.0,
        "uk": 0.03,
        "pk": 0.0,
        "i0": 0.001,
        "p0": 1000.0,
        "winding_from": 1,
        "winding_to": 1,
        "clock": 0,
        "tap_side": 0,
        "tap_pos": 0,
        "tap_min": -5,
        "tap_max": 5,
        "tap_nom": 0,
        "tap_size": 2300.0
      },
      {
        "id": 31,
        "from_node": 4,
        "to_node": 2,
        "from_status": 1,
        "to_status": 1,
        "u1": 230000.0,
        "u2": 20000.0,
        "sn": 900000000.0,
        "uk": 0.03,
        "pk": 0.0,
        "i0": 0.001,
        "p0": 1000.0,
        "winding_from": 1,
        "winding_to": 1,
        "clock": 0,
        "tap_side": 0,
        "tap_pos": 0,
        "tap_min": -5,
        "tap_max": 5,
        "tap_nom": 0,
        "tap_size": 2300.0
      },
      {
        "id": 32,
        "from_node": 9,
        "to_node": 11,
        "from_status": 1,
        "to_status": 1,
        "u1": 230000.0,
        "u2": 20000.0,
        "sn": 900000000.0,
        "uk": 0.03,
        "pk": 0.0,
        "i0": 0.001,
        "p0": 1000.0,
        "winding_from": 1,
        "winding_to": 1,
        "clock": 0,
        "tap_side": 0,
        "tap_pos": 0,
        "tap_min": -5,
        "tap_max": 5,
        "tap_nom": 0,
        "tap_size": 2300.0
      },
      {
        "id": 33,
        "from_node": 8,
        "to_node": 10,
        "from_status": 1,
        "to_status": 1,
        "u1": 230000.0,
        "u2": 20000.0,
        "sn": 900000000.0,
        "uk": 0.03,
        "pk": 0.0,
        "i0": 0.001,
        "p0": 1000.0,
        "winding_from": 1,
        "winding_to": 1,
        "clock": 0,
        "tap_side": 0,
        "tap_pos": 0,
        "tap_min": -5,
        "tap_max": 5,
        "tap_nom": 0,
        "tap_size": 2300.0
      }
    ],
    "sym_load": [
      {
        "id": 24,
        "node": 5,
        "status": 1,
        "type": 0,
        "p_specified": 96000000.0,
        "q_specified": 10000000.0
      },
      {
        "id": 25,
        "node": 7,
        "status": 1,
        "type": 0,
        "p_specified": 176000000.0,
        "q_specified": 10000000.0
      }
    ],
    "source": [
      {
        "id": 20,
        "node": 11,
        "status": 1,
        "u_ref": 1.03,
        "sk": 10000000000.0,
        "rx_ratio": 0.1,
        "z01_ratio": 1.0
      }
    ],
    "sym_voltage_sensor": [
      {
        "id": 34,
        "measured_object": 1,
        "u_sigma": 100.0,
        "u_measured": 23750.35967
      },
      {
        "id": 35,
        "measured_object": 2,
        "u_sigma": 100.0,
        "u_measured": 23551.66571
      },
      {
        "id": 36,
        "measured_object": 3,
        "u_sigma": 100.0,
        "u_measured": 273017.3984
      },
      {
        "id": 37,
        "measured_object": 4,
        "u_sigma": 100.0,
        "u_measured": 270685.8392
      },
      {
        "id": 38,
        "measured_object": 5,
        "u_sigma": 100.0,
        "u_measured": 267564.5314
      },
      {
        "id": 39,
        "measured_object": 6,
        "u_sigma": 100.0,
        "u_measured": 261537.7652
      },
      {
        "id": 40,
        "measured_object": 7,
        "u_sigma": 100.0,
        "u_measured": 250957.4518
      },
      {
        "id": 41,
        "measured_object": 8,
        "u_sigma": 100.0,
        "u_measured": 245629.3447
      },
      {
        "id": 42,
        "measured_object": 9,
        "u_sigma": 100.0,
        "u_measured": 239934.5871
      },
      {
        "id": 43,
        "measured_object": 10,
        "u_sigma": 100.0,
        "u_measured": 21371.1861
      },
      {
        "id": 44,
        "measured_object": 11,
        "u_sigma": 100.0,
        "u_measured": 20794.14484
      }
    ],
    "sym_power_sensor": [
      {
        "id": 45,
        "measured_object": 12,
        "measured_terminal_type": 0,
        "power_sigma": 100.0,
        "p_measured": 69998590.38,
        "q_measured": 16608392.26
      },
      {
        "id": 46,
        "measured_object": 12,
        "measured_terminal_type": 1,
        "power_sigma": 100.0,
        "p_measured": -69813352.02,
        "q_measured": -17315728.45
      },
      {
        "id": 47,
        "measured_object": 13,
        "measured_terminal_type": 0,
        "power_sigma": 100.0,
        "p_measured": 139811966.1,
        "q_measured": 40936360.25
      },
      {
        "id": 48,
        "measured_object": 13,
        "measured_terminal_type": 1,
        "power_sigma": 100.0,
        "p_measured": -139351683.1,
        "q_measured": -37002471.15
      },
      {
        "id": 49,
        "measured_object": 14,
        "measured_terminal_type": 0,
        "power_sigma": 100.0,
        "p_measured": 21540509.24,
        "q_measured": 14854558.66
      },
      {
        "id": 50,
        "measured_object": 14,
        "measured_terminal_type": 1,
        "power_sigma": 100.0,
        "p_measured": -21449149.56,
        "q_measured": -35166062.0
      },
      {
        "id": 51,
        "measured_object": 15,
        "measured_terminal_type": 0,
        "power_sigma": 100.0,
        "p_measured": 21540509.24,
        "q_measured": 14854558.66
      },
      {
        "id": 52,
        "measured_object": 15,
        "measured_terminal_type": 1,
        "power_sigma": 100.0,
        "p_measured": -21449149.56,
        "q_measured": -35166062.0
      },
      {
        "id": 53,
        "measured_object": 16,
        "measured_terminal_type": 0,
        "power_sigma": 100.0,
        "p_measured": 21449149.56,
        "q_measured": 35166062.0
      },
      {
        "id": 54,
        "measured_object": 16,
        "measured_terminal_type": 1,
        "power_sigma": 100.0,
        "p_measured": -21233790.66,
        "q_measured": -52930875.29
      },
      {
        "id": 55,
        "measured_object": 17,
        "measured_terminal_type": 0,
        "power_sigma": 100.0,
        "p_measured": 21449149.56,
        "q_measured": 35166062.0
      },
      {
        "id": 56,
        "measured_object": 17,
        "measured_terminal_type": 1,
        "power_sigma": 100.0,
        "p_measured": -21233790.66,
        "q_measured": -52930875.29
      },
      {
        "id": 57,
        "measured_object": 18,
        "measured_terminal_type": 0,
        "power_sigma": 100.0,
        "p_measured": -133949108.2,
        "q_measured": 100028645.6
      },
      {
        "id": 58,
        "measured_object": 18,
        "measured_terminal_type": 1,
        "power_sigma": 100.0,
        "p_measured": 134654829.8,
        "q_measured": -93540865.84
      },
      {
        "id": 59,
        "measured_object": 19,
        "measured_terminal_type": 0,
        "power_sigma": 100.0,
        "p_measured": -64655970.94,
        "q_measured": 112359682.4
      },
      {
        "id": 60,
        "measured_object": 19,
        "measured_terminal_type": 1,
        "power_sigma": 100.0,
        "p_measured": 65026913.34,
        "q_measured": -109671158.3
      },
      {
        "id": 61,
        "measured_object": 30,
        "measured_terminal_type": 0,
        "power_sigma": 100.0,
        "p_measured": -69998590.38,
        "q_measured": -16608392.26
      },
      {
        "id": 62,
        "measured_object": 30,
        "measured_terminal_type": 1,
        "power_sigma": 100.0,
        "p_measured": 70000000.0,
        "q_measured": 18000000.0
      },
      {
        "id": 63,
        "measured_object": 31,
        "measured_terminal_type": 0,
        "power_sigma": 100.0,
        "p_measured": -69998614.11,
        "q_measured": -23620631.81
      },
      {
        "id": 64,
        "measured_object": 31,
        "measured_terminal_type": 1,
        "power_sigma": 100.0,
        "p_measured": 70000000.0,
        "q_measured": 25000000.0
      },
      {
        "id": 65,
        "measured_object": 32,
        "measured_terminal_type": 0,
        "power_sigma": 100.0,
        "p_measured": -65026913.34,
        "q_measured": 109671158.3
      },
      {
        "id": 66,
        "measured_object": 32,
        "measured_terminal_type": 1,
        "power_sigma": 100.0,
        "p_measured": 65027997.96,
        "q_measured": -108200348.2
      },
      {
        "id": 67,
        "measured_object": 33,
        "measured_terminal_type": 0,
        "power_sigma": 100.0,
        "p_measured": -69998858.83,
        "q_measured": -18818816.56
      },
      {
        "id": 68,
        "measured_object": 33,
        "measured_terminal_type": 1,
        "power_sigma": 100.0,
        "p_measured": 70000000.0,
        "q_measured": 20000000.0
      }
    ]
  }
}
