tests/data/state_estimation/transmission-case/asym_output.json
{
  "version": "1.0",
  "type": "asym_output",
  "is_batch": false,
  "attributes": {},
  "data": {
    "line": [
      {
        "id": 12,
        "energized": 1,
        "loading": 0.015341791496723656,
        "p_from": [
          23332863.44244201,
          23332863.445509933,
          23332863.44617631
        ],
        "q_from": [
          5536130.740129323,
          5536130.740754592,
          5536130.740780739
        ],
        "i_from": [
          152.13569950280979,
          152.13569950273632,
          152.13569950293044
        ],
        "s_from": [
          23980643.444149945,
          23980643.44727934,
          23980643.447933752
        ],
        "p_to": [
          -23271117.322510704,
          -23271117.325698335,
          -23271117.326132525
        ],
        "q_to": [
          -5771909.468548933,
          -5771909.469455976,
          -5771909.469556701
        ],
        "i_to": [
          153.417914967095,
          153.41791496723656,
          153.4179149670008
        ],
        "s_to": [
          23976234.907741096,
          23976234.911053337,
          23976234.911499005
        ]
      },
      {
        "id": 13,
        "energized": 1,
        "loading": 0.03111128590707573,
        "p_from": [
          46603988.67946888,
          46603988.68587315,
          46603988.68683725
        ],
        "q_from": [
          13645453.39100703,
          13645453.392868439,
          13645453.3930048
        ],
        "i_from": [
          310.7269896141505,
          310.7269896141864,
          310.7269896140988
        ],
        "s_from": [
          48560582.359380834,
          48560582.36605012,
          48560582.36701369
        ],
        "p_to": [
          -46450561.00017984,
          -46450561.00683547,
          -46450561.00739612
        ],
        "q_to": [
          -12334157.021958552,
          -12334157.024171753,
          -12334157.024374623
        ],
        "i_to": [
          311.11285907063296,
          311.1128590707573,
          311.11285907056384
        ],
        "s_to": [
          48060233.52704144,
          48060233.53404215,
          48060233.53463609
        ]
      },
      {
        "id": 14,
        "energized": 1,
        "loading": 0.009093054399487403,
        "p_from": [
          7180169.744000773,
          7180169.744733326,
          7180169.745358291
        ],
        "q_from": [
          4951519.55031551,
          4951519.550227878,
          4951519.550268065
        ],
        "i_from": [
          56.46061401801932,
          56.46061401339932,
          56.46061401614466
        ],
        "s_from": [
          8721948.372343237,
          8721948.372896546,
          8721948.373433853
        ],
        "p_to": [
          -7149716.517895045,
          -7149716.5190131,
          -7149716.519080802
        ],
        "q_to": [
          -11722020.654137589,
          -11722020.655917669,
          -11722020.656031769
        ],
        "i_to": [
          90.93054399487403,
          90.93054399445887,
          90.93054399444951
        ],
        "s_to": [
          13730412.02958926,
          13730412.031691158,
          13730412.03182382
        ]
      },
      {
        "id": 15,
        "energized": 1,
        "loading": 0.009093054399487403,
        "p_from": [
          7180169.744000773,
          7180169.744733326,
          7180169.745358291
        ],
        "q_from": [
          4951519.55031551,
          4951519.550227878,
          4951519.550268065
        ],
        "i_from": [
          56.46061401801932,
          56.46061401339932,
          56.46061401614466
        ],
        "s_from": [
          8721948.372343237,
          8721948.372896546,
          8721948.373433853
        ],
        "p_to": [
          -7149716.517895045,
          -7149716.5190131,
          -7149716.519080802
        ],
        "q_to": [
          -11722020.654137589,
          -11722020.655917669,
          -11722020.656031769
        ],
        "i_to": [
          90.93054399487403,
          90.93054399445887,
          90.93054399444951
        ],
        "s_to": [
          13730412.02958926,
          13730412.031691158,
          13730412.03182382
        ]
      },
      {
        "id": 16,
        "energized": 1,
        "loading": 0.013120529514700857,
        "p_from": [
          7149716.517895016,
          7149716.5190131,
          7149716.519080802
        ],
        "q_from": [
          11722020.654137503,
          11722020.655917669,
          11722020.656031769
        ],
        "i_from": [
          90.93054399487345,
          90.93054399445887,
          90.93054399444951
        ],
        "s_from": [
          13730412.029589172,
          13730412.031691158,
          13730412.03182382
        ],
        "p_to": [
          -7077930.219873197,
          -7077930.221377819,
          -7077930.22098988
        ],
        "q_to": [
          -17643625.072474442,
          -17643625.07636434,
          -17643625.07649478
        ],
        "i_to": [
          131.2052951409827,
          131.20529514700857,
          131.20529514581335
        ],
        "s_to": [
          19010381.424249303,
          19010381.428419735,
          19010381.42839636
        ]
      },
      {
        "id": 17,
        "energized": 1,
        "loading": 0.013120529514700857,
        "p_from": [
          7149716.517895016,
          7149716.5190131,
          7149716.519080802
        ],
        "q_from": [
          11722020.654137503,
          11722020.655917669,
          11722020.656031769
        ],
        "i_from": [
          90.93054399487345,
          90.93054399445887,
          90.93054399444951
        ],
        "s_from": [
          13730412.029589172,
          13730412.031691158,
          13730412.03182382
        ],
        "p_to": [
          -7077930.219873197,
          -7077930.221377819,
          -7077930.22098988
        ],
        "q_to": [
          -17643625.072474442,
          -17643625.07636434,
          -17643625.07649478
        ],
        "i_to": [
          131.2052951409827,
          131.20529514700857,
          131.20529514581335
        ],
        "s_to": [
          19010381.424249303,
          19010381.428419735,
          19010381.42839636
        ]
      },
      {
        "id": 18,
        "energized": 1,
        "loading": 0.0385379342299066,
        "p_from": [
          -44649702.68034161,
          -44649702.688615315,
          -44649702.68876516
        ],
        "q_from": [
          33342881.853645958,
          33342881.858771477,
          33342881.859269217
        ],
        "i_from": [
          384.6053939237081,
          384.6053939239185,
          384.6053939237718
        ],
        "s_from": [
          55725610.98587523,
          55725610.99557128,
          55725610.99598915
        ],
        "p_to": [
          44884943.211005904,
          44884943.21892159,
          44884943.21960754
        ],
        "q_to": [
          -31180288.600412697,
          -31180288.60600863,
          -31180288.606611762
        ],
        "i_to": [
          385.3793422987635,
          385.37934229906597,
          385.37934229894915
        ],
        "s_to": [
          54652250.86179206,
          54652250.87148567,
          54652250.87239313
        ]
      },
      {
        "id": 19,
        "energized": 1,
        "loading": 0.030680106749017336,
        "p_from": [
          -21551990.28116563,
          -21551990.28517357,
          -21551990.285372727
        ],
        "q_from": [
          37453227.4379977,
          37453227.444499634,
          37453227.445219696
        ],
        "i_from": [
          304.7049998624743,
          304.7049998625027,
          304.70499986245227
        ],
        "s_from": [
          43211486.09573433,
          43211486.10336882,
          43211486.10409226
        ],
        "p_to": [
          21675637.74816622,
          21675637.751996152,
          21675637.752475638
        ],
        "q_to": [
          -36557052.746483795,
          -36557052.753319964,
          -36557052.75410053
        ],
        "i_to": [
          306.80106748977687,
          306.8010674901588,
          306.80106749017335
        ],
        "s_to": [
          42500016.20351369,
          42500016.21134726,
          42500016.21226322
        ]
      }
    ],
    "node": [
      {
        "id": 1,
        "energized": 1,
        "u_pu": [
          1.1875179824078874,
          1.187517982563358,
          1.187517982594227
        ],
        "u": [
          13712.276536214304,
          13712.276538009522,
          13712.276538365968
        ],
        "u_angle": [
          0.030447339247021324,
          -2.063947763017577,
          2.1248424415106215
        ]
      },
      {
        "id": 2,
        "energized": 1,
        "u_pu": [
          1.1775832845823833,
          1.177583284743873,
          1.1775832847675471
        ],
        "u": [
          13597.560526936855,
          13597.560528801578,
          13597.560529074943
        ],
        "u_angle": [
          0.006060918452017636,
          -2.0883341838051597,
          2.1004560207259284
        ]
      },
      {
        "id": 3,
        "energized": 1,
        "u_pu": [
          1.1870321658545286,
          1.1870321660100054,
          1.1870321660408838
        ],
        "u": [
          157626.66831335705,
          157626.6683340029,
          157626.66833810325
        ],
        "u_angle": [
          0.028792065121577157,
          -2.065603037142805,
          2.123187167385432
        ]
      },
      {
        "id": 4,
        "energized": 1,
        "u_pu": [
          1.176894952284872,
          1.1768949524463703,
          1.176894952470055
        ],
        "u": [
          156280.54202720404,
          156280.54204864948,
          156280.5420517946
        ],
        "u_angle": [
          0.004377301243868002,
          -2.0900178010130794,
          2.0987724035180384
        ]
      },
      {
        "id": 5,
        "energized": 1,
        "u_pu": [
          1.1633240487646244,
          1.1633240489336156,
          1.1633240489487156
        ],
        "u": [
          154478.45412307492,
          154478.45414551537,
          154478.45414752048
        ],
        "u_angle": [
          -0.0253583239647501,
          -2.1197534262127196,
          2.0690367783221855
        ]
      },
      {
        "id": 6,
        "energized": 1,
        "u_pu": [
          1.1371207172693758,
          1.1371207174486415,
          1.137120717459746
        ],
        "u": [
          150998.89900981216,
          150998.89903361697,
          150998.8990350915
        ],
        "u_angle": [
          -0.041134866032233965,
          -2.1355299682780657,
          2.053260236263363
        ]
      },
      {
        "id": 7,
        "energized": 1,
        "u_pu": [
          1.0911193545525182,
          1.0911193547417724,
          1.0911193547503704
        ],
        "u": [
          144890.35220584867,
          144890.35223097983,
          144890.35223212157
        ],
        "u_angle": [
          -0.05611789947317724,
          -2.150513001719895,
          2.038277202832482
        ]
      },
      {
        "id": 8,
        "energized": 1,
        "u_pu": [
          1.06795367182868,
          1.0679536720172635,
          1.0679536720353195
        ],
        "u": [
          141814.1681798377,
          141814.1682048798,
          141814.1682072775
        ],
        "u_angle": [
          -0.01904116797064184,
          -2.1134362702334473,
          2.0753539343225165
        ]
      },
      {
        "id": 9,
        "energized": 1,
        "u_pu": [
          1.04319385606354,
          1.043193856254522,
          1.0431938562769552
        ],
        "u": [
          138526.29833150722,
          138526.2983568678,
          138526.29835984673
        ],
        "u_angle": [
          -0.001998479594607853,
          -2.096393581866599,
          2.092396622694036
        ]
      },
      {
        "id": 10,
        "energized": 1,
        "u_pu": [
          1.0685593040687997,
          1.0685593042573673,
          1.0685593042754242
        ],
        "u": [
          12338.660036984016,
          12338.660039161407,
          12338.66003936991
        ],
        "u_angle": [
          -0.016996501373205523,
          -2.1113916036363904,
          2.077398600919547
        ]
      },
      {
        "id": 11,
        "energized": 1,
        "u_pu": [
          1.0397072408697945,
          1.039707241060765,
          1.0397072410831991
        ],
        "u": [
          12005.50510789158,
          12005.50511009672,
          12005.505110355765
        ],
        "u_angle": [
          0.0,
          -2.094395102272371,
          2.094395102288222
        ]
      }
    ],
    "shunt": [
      {
        "id": 28,
        "energized": 1,
        "p": [
          90221.53886220009,
          90221.53859139817,
          90221.53858962475
        ],
        "q": [
          -902215.3866258089,
          -902215.3870641635,
          -902215.3867422468
        ],
        "i": [
          5.869525605186075,
          5.869525606982563,
          5.869525604831682
        ],
        "s": [
          906715.2419249504,
          906715.2423341837,
          906715.2420136882
        ],
        "pf": [
          0.0995037192389756,
          0.0995037188954034,
          0.09950371892861896
        ]
      },
      {
        "id": 29,
        "energized": 1,
        "p": [
          138896.50027207923,
          138896.50023098927,
          138896.50005762713
        ],
        "q": [
          -1388965.001439117,
          -1388965.0021751982,
          -1388965.0019926508
        ],
        "i": [
          9.634130426330202,
          9.634130429686,
          9.634130428237377
        ],
        "s": [
          1395892.5506680654,
          1395892.551396405,
          1395892.5511975135
        ],
        "pf": [
          0.09950371911190746,
          0.09950371903055273,
          0.09950371892053589
        ]
      }
    ],
    "source": [
      {
        "id": 20,
        "energized": 1,
        "p": [
          21675999.28892611,
          21675999.292755503,
          21675999.29323673
        ],
        "q": [
          -36066782.71040739,
          -36066782.717122965,
          -36066782.717891656
        ],
        "i": [
          3504.99471342554,
          3504.994713425511,
          3504.9947134254094
        ],
        "s": [
          42079231.9351633,
          42079231.94289193,
          42079231.94379868
        ],
        "pf": [
          0.5151234538293146,
          0.5151234538257069,
          0.5151234538260429
        ]
      }
    ],
    "sym_gen": [
      {
        "id": 21,
        "energized": 1,
        "p": [
          23333333.316493668,
          23333333.319565047,
          23333333.320228074
        ],
        "q": [
          5999999.987197825,
          5999999.987934175,
          5999999.987977611
        ],
        "i": [
          1756.9959724045673,
          1756.995972404844,
          1756.9959724067899
        ],
        "s": [
          24092414.64662617,
          24092414.64978416,
          24092414.650437113
        ],
        "pf": [
          0.9684929326816645,
          0.9684929326821995,
          0.9684929326834715
        ]
      },
      {
        "id": 22,
        "energized": 1,
        "p": [
          23333333.320976585,
          23333333.324193243,
          23333333.3247237
        ],
        "q": [
          8333333.319132412,
          8333333.320196971,
          8333333.320246115
        ],
        "i": [
          1822.1489935665106,
          1822.1489935657387,
          1822.1489935670602
        ],
        "s": [
          24776781.229117688,
          24776781.232505,
          24776781.23302108
        ],
        "pf": [
          0.941741911719963,
          0.9417419117210399,
          0.9417419117228336
        ]
      },
      {
        "id": 23,
        "energized": 1,
        "p": [
          23333333.32051085,
          23333333.324418444,
          23333333.324905362
        ],
        "q": [
          6666666.6498457715,
          6666666.650875289,
          6666666.651000626
        ],
        "i": [
          1966.7478376566003,
          1966.7478376369627,
          1966.747837644463
        ],
        "s": [
          24267032.94731821,
          24267032.951358292,
          24267032.951860905
        ],
        "pf": [
          0.9615239477840432,
          0.9615239477849893,
          0.9615239477851394
        ]
      }
    ],
    "sym_load": [
      {
        "id": 24,
        "energized": 1,
        "p": [
          31999999.97331593,
          31999999.978777356,
          31999999.97809007
        ],
        "q": [
          3333333.307953257,
          3333333.3107800884,
          3333333.310580656
        ],
        "i": [
          208.26944995125558,
          208.26944995806082,
          208.26944995079867
        ],
        "s": [
          32173142.66953308,
          32173142.675257992,
          32173142.674553744
        ],
        "pf": [
          0.9946184089631658,
          0.9946184089559337,
          0.9946184089563431
        ]
      },
      {
        "id": 25,
        "energized": 1,
        "p": [
          58666666.61981591,
          58666666.63114004,
          58666666.63068717
        ],
        "q": [
          3333333.292742579,
          3333333.296132551,
          3333333.2957128664
        ],
        "i": [
          405.5569359043744,
          405.55693591338877,
          405.55693590690817
        ],
        "s": [
          58761287.28270959,
          58761287.2942078,
          58761287.29373184
        ],
        "pf": [
          0.9983897448938032,
          0.9983897448911558,
          0.9983897448915358
        ]
      }
    ],
    "sym_power_sensor": [
      {
        "id": 45,
        "energized": 1,
        "p_residual": [
          0.017557984695789248,
          0.01449006485169472,
          0.013823689452389468
        ],
        "q_residual": [
          0.013204009737440476,
          0.012578740419636839,
          0.01255259363119876
        ]
      },
      {
        "id": 46,
        "energized": 1,
        "p_residual": [
          -0.017489294161047532,
          -0.014301662076832145,
          -0.013867473095767005
        ],
        "q_residual": [
          -0.01478439889031809,
          -0.013877356745221428,
          -0.01377663139123797
        ]
      },
      {
        "id": 47,
        "energized": 1,
        "p_residual": [
          0.02053112287588495,
          0.014126849616028872,
          0.013162747336536995
        ],
        "q_residual": [
          0.025659635601490056,
          0.02379822679661932,
          0.0236618665401996
        ]
      },
      {
        "id": 48,
        "energized": 1,
        "p_residual": [
          -0.03315348825102167,
          -0.026497862866866246,
          -0.025937216226642097
        ],
        "q_residual": [
          -0.028041445906031488,
          -0.02582824502421014,
          -0.02562537559924749
        ]
      },
      {
        "id": 49,
        "energized": 1,
        "p_residual": [
          0.0026658923957256775,
          0.0019333394144875151,
          0.0013083744458223614
        ],
        "q_residual": [
          0.0030178236206287084,
          0.0031054554483489483,
          0.0030652677433333033
        ]
      },
      {
        "id": 50,
        "energized": 1,
        "p_residual": [
          -0.0021049544329798664,
          -0.0009868988589308476,
          -0.0009191971628297324
        ],
        "q_residual": [
          -0.012529075850882993,
          -0.01074899576754736,
          -0.010634896815039003
        ]
      },
      {
        "id": 51,
        "energized": 1,
        "p_residual": [
          0.0026658923957256775,
          0.0019333394144875151,
          0.0013083744458223614
        ],
        "q_residual": [
          0.0030178236206287084,
          0.0031054554483489483,
          0.0030652677433333033
        ]
      },
      {
        "id": 52,
        "energized": 1,
        "p_residual": [
          -0.0021049544329798664,
          -0.0009868988589308476,
          -0.0009191971628297324
        ],
        "q_residual": [
          -0.012529075850882993,
          -0.01074899576754736,
          -0.010634896815039003
        ]
      },
      {
        "id": 53,
        "energized": 1,
        "p_residual": [
          0.002104982854689297,
          0.0009868988589308476,
          0.0009191971628297324
        ],
        "q_residual": [
          0.012529161116011284,
          0.01074899576754736,
          0.010634896815039003
        ]
      },
      {
        "id": 54,
        "energized": 1,
        "p_residual": [
          -0.00012680227238585454,
          0.0013778193401018748,
          0.000989880769945254
        ],
        "q_residual": [
          -0.024192222743598297,
          -0.02030232574649441,
          -0.020171884311063572
        ]
      },
      {
        "id": 55,
        "energized": 1,
        "p_residual": [
          0.002104982854689297,
          0.0009868988589308476,
          0.0009191971628297324
        ],
        "q_residual": [
          0.012529161116011284,
          0.01074899576754736,
          0.010634896815039003
        ]
      },
      {
        "id": 56,
        "energized": 1,
        "p_residual": [
          -0.00012680227238585454,
          0.0013778193401018748,
          0.000989880769945254
        ],
        "q_residual": [
          -0.024192222743598297,
          -0.02030232574649441,
          -0.020171884311063572
        ]
      },
      {
        "id": 57,
        "energized": 1,
        "p_residual": [
          -0.052991727746605946,
          -0.044718016548965046,
          -0.044568177296847956
        ],
        "q_residual": [
          0.013020705106706979,
          0.007895186134495209,
          0.007397446211143688
        ]
      },
      {
        "id": 58,
        "energized": 1,
        "p_residual": [
          0.055660763109699474,
          0.047745080185753366,
          0.047059131702553714
        ],
        "q_residual": [
          -0.012920637004754099,
          -0.00732470558280814,
          -0.006721573223937108
        ]
      },
      {
        "id": 59,
        "energized": 1,
        "p_residual": [
          -0.03216770494418597,
          -0.02815976548239026,
          -0.027960605090508274
        ],
        "q_residual": [
          0.028668968828545378,
          0.02216703383813486,
          0.021446969829715574
        ]
      },
      {
        "id": 60,
        "energized": 1,
        "p_residual": [
          0.03183378301703972,
          0.028003848721406634,
          0.027524365009412577
        ],
        "q_residual": [
          -0.02018287167023421,
          -0.013346702113873713,
          -0.01256613302302867
        ]
      },
      {
        "id": 61,
        "energized": 1,
        "p_residual": [
          -0.017558088908723825,
          -0.014488136912405025,
          -0.01382322996808701
        ],
        "q_residual": [
          -0.013205813331751415,
          -0.012576303258053182,
          -0.012552311782580242
        ]
      },
      {
        "id": 62,
        "energized": 1,
        "p_residual": [
          0.01683966388554836,
          0.013768286066806468,
          0.01310525969226243
        ],
        "q_residual": [
          0.012802175319848175,
          0.012065824487687374,
          0.01202238901025036
        ]
      },
      {
        "id": 63,
        "energized": 1,
        "p_residual": [
          -0.013041912438893632,
          -0.009826266023083008,
          -0.009294003196676687
        ],
        "q_residual": [
          -0.014201255282841885,
          -0.013251946503108531,
          -0.013215966987445427
        ]
      },
      {
        "id": 64,
        "energized": 1,
        "p_residual": [
          0.01235674555270331,
          0.009140090166207907,
          0.008609632118350419
        ],
        "q_residual": [
          0.014200921327756078,
          0.013136361332044544,
          0.013087217827963588
        ]
      },
      {
        "id": 65,
        "energized": 1,
        "p_residual": [
          -0.03183394407339316,
          -0.02800426557314495,
          -0.027522640759040463
        ],
        "q_residual": [
          0.02018287167023421,
          0.013346758957292574,
          0.012565668801774638
        ]
      },
      {
        "id": 66,
        "energized": 1,
        "p_residual": [
          0.0310738907198053,
          0.02724449643665139,
          0.026763274263430503
        ],
        "q_residual": [
          -0.022925945586393937,
          -0.016210369343146642,
          -0.015441675789891935
        ]
      },
      {
        "id": 67,
        "energized": 1,
        "p_residual": [
          -0.013493021810973005,
          -0.009585226242355322,
          -0.00909859920739109
        ],
        "q_residual": [
          -0.01574654717728663,
          -0.014838415533328467,
          -0.014723583537564384
        ]
      },
      {
        "id": 68,
        "energized": 1,
        "p_residual": [
          0.012822482631236198,
          0.008914886014584528,
          0.00842797002557442
        ],
        "q_residual": [
          0.01682089489918326,
          0.015791377686961518,
          0.015666040316849223
        ]
      }
    ],
    "sym_voltage_sensor": [
      {
        "id": 34,
        "energized": 1,
        "u_residual": [
          1.2610630332388005e-05,
          1.0815411339236026e-05,
          1.0458965847787471e-05
        ]
      },
      {
        "id": 35,
        "energized": 1,
        "u_residual": [
          1.059572695404307e-05,
          8.731004397554444e-06,
          8.457638586008404e-06
        ]
      },
      {
        "id": 36,
        "energized": 1,
        "u_residual": [
          0.00014633429139128206,
          0.00012568844737805427,
          0.00012158808583842587
        ]
      },
      {
        "id": 37,
        "energized": 1,
        "u_residual": [
          0.00010073575537390934,
          7.929029604260367e-05,
          7.61452033947149e-05
        ]
      },
      {
        "id": 38,
        "energized": 1,
        "u_residual": [
          0.00010631118441298398,
          8.38707393186141e-05,
          8.186561228256675e-05
        ]
      },
      {
        "id": 39,
        "energized": 1,
        "u_residual": [
          0.00013166101564494672,
          0.00010785622083273696,
          0.00010638165458556431
        ]
      },
      {
        "id": 40,
        "energized": 1,
        "u_residual": [
          0.00014602389829222214,
          0.00012089273099325346,
          0.00011975099625574058
        ]
      },
      {
        "id": 41,
        "energized": 1,
        "u_residual": [
          0.0001035787108425384,
          7.853658953570051e-05,
          7.613892299858118e-05
        ]
      },
      {
        "id": 42,
        "energized": 1,
        "u_residual": [
          0.00011857954020694696,
          9.321894679381608e-05,
          9.024003401733434e-05
        ]
      },
      {
        "id": 43,
        "energized": 1,
        "u_residual": [
          1.0752574046545507e-05,
          8.57518288515141e-06,
          8.366679886992213e-06
        ]
      },
      {
        "id": 44,
        "energized": 1,
        "u_residual": [
          1.3050488817271381e-05,
          1.0845350586287894e-05,
          1.058630443687979e-05
        ]
      }
    ],
    "transformer": [
      {
        "id": 30,
        "energized": 1,
        "loading": 0.08030804882983049,
        "p_from": [
          -23332863.442441907,
          -23332863.44551186,
          -23332863.446176767
        ],
        "q_from": [
          -5536130.74012752,
          -5536130.7407570295,
          -5536130.74078102
        ],
        "i_from": [
          152.1356995028065,
          152.1356995027518,
          152.1356995029337
        ],
        "s_from": [
          23980643.44414943,
          23980643.44728178,
          23980643.44793427
        ],
        "p_to": [
          23333333.316493668,
          23333333.319565047,
          23333333.320228074
        ],
        "q_to": [
          5999999.987197825,
          5999999.987934175,
          5999999.987977611
        ],
        "i_to": [
          1756.995972404567,
          1756.9959724048438,
          1756.9959724067896
        ],
        "s_to": [
          24092414.64662617,
          24092414.64978416,
          24092414.650437113
        ]
      },
      {
        "id": 31,
        "energized": 1,
        "loading": 0.0825892707718264,
        "p_from": [
          -23332871.356958088,
          -23332871.360173736,
          -23332871.360705998
        ],
        "q_from": [
          -7873543.922465411,
          -7873543.923414719,
          -7873543.923450699
        ],
        "i_from": [
          157.57244228197874,
          157.5724422817942,
          157.57244228192377
        ],
        "s_from": [
          24625506.68837795,
          24625506.691728327,
          24625506.692244153
        ],
        "p_to": [
          23333333.320976585,
          23333333.324193243,
          23333333.3247237
        ],
        "q_to": [
          8333333.319132412,
          8333333.320196971,
          8333333.320246115
        ],
        "i_to": [
          1822.14899356651,
          1822.1489935657385,
          1822.1489935670602
        ],
        "s_to": [
          24776781.229117688,
          24776781.232505,
...