tests/data/state_estimation/transmission-case/sym_output.json
{
  "version": "1.0",
  "type": "sym_output",
  "is_batch": false,
  "attributes": {},
  "data": {
    "line": [
      {
        "id": 12,
        "energized": 1,
        "loading": 0.015341791496641985,
        "p_from": 69998590.2928087,
        "q_from": 16608392.209099794,
        "i_from": 152.13569950320021,
        "s_from": 71941930.29625893,
        "p_to": -69813351.93302202,
        "q_to": -17315728.391910594,
        "i_to": 153.41791496641986,
        "s_to": 71928704.68642132
      },
      {
        "id": 13,
        "energized": 1,
        "loading": 0.031111285907011132,
        "p_from": 139811965.96964684,
        "q_from": 40936360.144513234,
        "i_from": 310.7269896139293,
        "s_from": 145681747.0041425,
        "p_to": -139351682.93188,
        "q_to": -37002471.03733578,
        "i_to": 311.1128590701113,
        "s_to": 144180700.5074399
      },
      {
        "id": 14,
        "energized": 1,
        "loading": 0.009093054399435632,
        "p_from": 21540509.222455166,
        "q_from": 14854558.654034046,
        "i_from": 56.46061403360216,
        "s_from": 26165845.110923015,
        "p_to": -21449149.544322815,
        "q_to": -35166061.942710444,
        "i_to": 90.93054399435633,
        "s_to": 41191236.06707223
      },
      {
        "id": 15,
        "energized": 1,
        "loading": 0.009093054399435632,
        "p_from": 21540509.222455166,
        "q_from": 14854558.654034046,
        "i_from": 56.46061403360216,
        "s_from": 26165845.110923015,
        "p_to": -21449149.544322815,
        "q_to": -35166061.942710444,
        "i_to": 90.93054399435633,
        "s_to": 41191236.06707223
      },
      {
        "id": 16,
        "energized": 1,
        "loading": 0.013120529511670294,
        "p_from": 21449149.544322856,
        "q_from": 35166061.94271057,
        "i_from": 90.93054399435661,
        "s_from": 41191236.067072354,
        "p_to": -21233790.650628373,
        "q_to": -52930875.177041635,
        "i_to": 131.20529511670293,
        "s_to": 57031144.231921874
      },
      {
        "id": 17,
        "energized": 1,
        "loading": 0.013120529511670294,
        "p_from": 21449149.544322856,
        "q_from": 35166061.94271057,
        "i_from": 90.93054399435661,
        "s_from": 41191236.067072354,
        "p_to": -21233790.650628373,
        "q_to": -52930875.177041635,
        "i_to": 131.20529511670293,
        "s_to": 57031144.231921874
      },
      {
        "id": 18,
        "energized": 1,
        "loading": 0.038537934229843536,
        "p_from": -133949107.96316186,
        "q_from": 100028645.51692782,
        "i_from": 384.60539392374943,
        "s_from": 167176832.86890563,
        "p_to": 134654829.55497378,
        "q_to": -93540865.75753538,
        "i_to": 385.37934229843535,
        "s_to": 163956752.4963467
      },
      {
        "id": 19,
        "energized": 1,
        "loading": 0.03068010674889108,
        "p_from": -64655970.801854834,
        "q_from": 112359682.2569781,
        "i_from": 304.70499986269823,
        "s_from": 129634458.21701646,
        "p_to": 65026913.20277996,
        "q_to": -109671158.18179974,
        "i_to": 306.8010674889108,
        "s_to": 127500048.53967397
      }
    ],
    "node": [
      {
        "id": 1,
        "energized": 1,
        "u_pu": 1.1875179818076063,
        "u": 23750.359636152127,
        "u_angle": 0.03044733926480215
      },
      {
        "id": 2,
        "energized": 1,
        "u_pu": 1.1775832839853222,
        "u": 23551.665679706442,
        "u_angle": 0.006060918460553499
      },
      {
        "id": 3,
        "energized": 1,
        "u_pu": 1.187032165254337,
        "u": 273017.3980084975,
        "u_angle": 0.028792065138500484
      },
      {
        "id": 4,
        "energized": 1,
        "u_pu": 1.1768949516878984,
        "u": 270685.83888821665,
        "u_angle": 0.004377301251519952
      },
      {
        "id": 5,
        "energized": 1,
        "u_pu": 1.1633240481720515,
        "u": 267564.53107957187,
        "u_angle": -0.025358323968644857
      },
      {
        "id": 6,
        "energized": 1,
        "u_pu": 1.1371207166769246,
        "u": 261537.76483569265,
        "u_angle": -0.041134866043247766
      },
      {
        "id": 7,
        "energized": 1,
        "u_pu": 1.0911193539733484,
        "u": 250957.45141387012,
        "u_angle": -0.056117899493172044
      },
      {
        "id": 8,
        "energized": 1,
        "u_pu": 1.0679536712496844,
        "u": 245629.3443874274,
        "u_angle": -0.019041167977185542
      },
      {
        "id": 9,
        "energized": 1,
        "u_pu": 1.0431938554866564,
        "u": 239934.586761931,
        "u_angle": -0.001998479595539987
      },
      {
        "id": 10,
        "energized": 1,
        "u_pu": 1.0685593034897,
        "u": 21371.186069794003,
        "u_angle": -0.016996501378595853
      },
      {
        "id": 11,
        "energized": 1,
        "u_pu": 1.0397072402928071,
        "u": 20794.144805856144,
        "u_angle": 0.0
      }
    ],
    "shunt": [
      {
        "id": 28,
        "energized": 1,
        "p": 270664.6157127136,
        "q": -2706646.157127136,
        "i": 5.869525602083137,
        "s": 2720145.7229512543,
        "pf": 0.09950371902099893
      },
      {
        "id": 29,
        "energized": 1,
        "p": 416689.5000197811,
        "q": -4166895.00019781,
        "i": 9.634130421831369,
        "s": 4187677.6478258497,
        "pf": 0.09950371902099894
      }
    ],
    "source": [
      {
        "id": 20,
        "energized": 1,
        "p": 65027997.825062744,
        "q": -108200348.07465605,
        "i": 3504.9947134278564,
        "s": 126237695.73551749,
        "pf": 0.5151234537843902
      }
    ],
    "sym_gen": [
      {
        "id": 21,
        "energized": 1,
        "p": 69999999.91496831,
        "q": 17999999.94901254,
        "i": 1756.9959724040104,
        "s": 72277243.90332006,
        "pf": 0.9684929326940324
      },
      {
        "id": 22,
        "energized": 1,
        "p": 69999999.92868379,
        "q": 24999999.941343818,
        "i": 1822.1489935674153,
        "s": 74330343.64970285,
        "pf": 0.9417419117362527
      },
      {
        "id": 23,
        "energized": 1,
        "p": 69999999.92513347,
        "q": 19999999.93511257,
        "i": 1966.747837669913,
        "s": 72801098.80299328,
        "pf": 0.9615239477986471
      }
    ],
    "sym_load": [
      {
        "id": 24,
        "energized": 1,
        "p": 95999999.87125687,
        "q": 9999999.886394072,
        "i": 208.26944994446808,
        "s": 96519427.95628868,
        "pf": 0.9946184089977508
      },
      {
        "id": 25,
        "energized": 1,
        "p": 175999999.76439896,
        "q": 9999999.837354045,
        "i": 405.5569358959951,
        "s": 176283861.75091445,
        "pf": 0.9983897449051996
      }
    ],
    "transformer": [
      {
        "id": 30,
        "energized": 1,
        "loading": 0.08030804878146673,
        "p_from": -69998590.2928093,
        "q_from": -16608392.209090091,
        "i_from": 152.1356995031967,
        "s_from": 71941930.29625727,
        "p_to": 69999999.91496831,
        "q_to": 17999999.94901254,
        "i_to": 1756.995972404011,
        "s_to": 72277243.90332006
      },
      {
        "id": 31,
        "energized": 1,
        "loading": 0.08258927072189205,
        "p_from": -69998614.03662476,
        "q_from": -23620631.752608534,
        "i_from": 157.57244228260512,
        "s_from": 73876520.02795407,
        "p_to": 69999999.92868379,
        "q_to": 24999999.941343818,
        "i_to": 1822.1489935674156,
        "s_to": 74330343.64970285
      },
      {
        "id": 32,
        "energized": 1,
        "loading": 0.14166672059964316,
        "p_from": -65026913.20277991,
        "q_from": 109671158.18180542,
        "i_from": 306.8010674889225,
        "s_from": 127500048.53967884,
        "p_to": 65027997.825062744,
        "q_to": -108200348.07465605,
        "i_to": 3504.994713427856,
        "s_to": 126237695.73551749
      },
      {
        "id": 33,
        "energized": 1,
        "loading": 0.08089010978110364,
        "p_from": -69998858.75311919,
        "q_from": -18818816.499445595,
        "i_from": 170.37413551102978,
        "s_from": 72484398.88126917,
        "p_to": 69999999.92513347,
        "q_to": 19999999.93511257,
        "i_to": 1966.7478376699125,
        "s_to": 72801098.80299328
      }
    ]
  }
}
